b4mdata.json
{
    "bus": {
        "4": {
            "source_id": [
                "bus",
                4
            ],
            "zone": 1,
            "lat": 40.0,
            "area": 1,
            "vmin": 0.9,
            "lon": 40.0,
            "bus_i": 4,
            "index": 4,
            "bus_type": 3,
            "va": 0.0,
            "name": "Bus 4",
            "vm": 1.0,
            "vmax": 1.1,
            "base_kv": 20.0
        },
        "1": {
            "source_id": [
                "bus",
                1
            ],
            "zone": 1,
            "lat": 40.0,
            "area": 1,
            "vmin": 0.9,
            "lon": 40.0,
            "bus_i": 1,
            "index": 1,
            "bus_type": 1,
            "va": 0.14039573365370303,
            "name": "Bus 1",
            "vm": 0.9987129,
            "vmax": 1.1,
            "base_kv": 765.0
        },
        "2": {
            "source_id": [
                "bus",
                2
            ],
            "zone": 1,
            "lat": 40.0,
            "area": 1,
            "vmin": 0.9,
            "lon": 40.0,
            "bus_i": 2,
            "index": 2,
            "bus_type": 1,
            "va": 0.03997339803147377,
            "name": "Bus 2",
            "vm": 0.9968737,
            "vmax": 1.1,
            "base_kv": 765.0
        },
        "3": {
            "source_id": [
                "bus",
                3
            ],
            "zone": 1,
            "lat": 40.0,
            "area": 1,
            "vmin": 0.9,
            "lon": 40.0,
            "bus_i": 3,
            "index": 3,
            "bus_type": 2,
            "va": 0.18035134678009895,
            "name": "Bus 3",
            "vm": 1.0012021,
            "vmax": 1.1,
            "base_kv": 20.0
        }
    },
    "source_type": "matpower",
    "name": "b4gic",
    "source_version": "2",
    "gen": {
        "1": {
            "ncost": 3,
            "qc1max": 0.0,
            "pg": 10.0,
            "model": 2,
            "shutdown": 0.0,
            "startup": 0.0,
            "qc2max": 0.0,
            "ramp_agc": 0.0,
            "qg": 0.5724,
            "gen_bus": 3,
            "pmax": 10.0,
            "ramp_10": 0.0,
            "vg": 1.0012,
            "mbase": 2000.0,
            "source_id": [
                "gen",
                1
            ],
            "pc2": 0.0,
            "index": 1,
            "cost": [
                10.0,
                1183.1,
                616.86
            ],
            "qmax": 0.5724,
            "gen_status": 1,
            "qmin": 0.5724,
            "qc1min": 0.0,
            "qc2min": 0.0,
            "pc1": 0.0,
            "ramp_q": 0.0,
            "ramp_30": 0.0,
            "pmin": 10.0,
            "apf": 0.0
        },
        "2": {
            "ncost": 0,
            "qc1max": 0.0,
            "pg": -9.9287,
            "model": 2,
            "shutdown": 0.0,
            "startup": 0.0,
            "qc2max": 0.0,
            "ramp_agc": 0.0,
            "qg": 1.2289,
            "gen_bus": 4,
            "pmax": 10.0,
            "ramp_10": 0.0,
            "vg": 1.0,
            "mbase": 2000.0,
            "source_id": [
                "gen",
                2
            ],
            "pc2": 0.0,
            "index": 2,
            "cost": [],
            "qmax": 99.0,
            "gen_status": 1,
            "qmin": -99.0,
            "qc1min": 0.0,
            "qc2min": 0.0,
            "pc1": 0.0,
            "ramp_q": 0.0,
            "ramp_30": 0.0,
            "pmin": 0.0,
            "apf": 10.0
        }
    },
    "branch": {
        "1": {
            "br_r": 0.000513,
            "gmd_br_series": -1,
            "rate_a": 20.0,
            "hotspot_coeff": -1.0,
            "shift": 0.0,
            "gmd_k": -1.0,
            "lo_bus": 2,
            "xfmr": 0,
            "pt": -9.9387,
            "br_x": 0.01,
            "topoil_init": -1,
            "g_to": 0.0,
            "hotspot_instant_limit": -1,
            "topoil_rated": -1,
            "g_fr": 0.0,
            "source_id": [
                "branch",
                1
            ],
            "b_fr": 0.0,
            "f_bus": 1,
            "gmd_br_hi": -1,
            "baseMVA": 100,
            "br_status": 1,
            "topoil_initialized": -1,
            "hi_bus": 1,
            "config": "none",
            "topoil_time_const": -1,
            "t_bus": 2,
            "b_to": 0.0,
            "index": 1,
            "gmd_br_common": -1,
            "qf": 0.1728,
            "angmin": -1.0472,
            "temperature_ambient": -1,
            "angmax": 1.0472,
            "qt": 0.8281000000000001,
            "transformer": false,
            "hotspot_avg_limit": -1,
            "hotspot_rated": -1,
            "gmd_br_lo": -1,
            "tap": 1.0,
            "type": "line",
            "pf": 9.99
        },
        "2": {
            "br_r": 0.0001,
            "gmd_br_series": -1,
            "rate_a": 20.0,
            "hotspot_coeff": 0.63,
            "shift": 0.0,
            "gmd_k": 1.8,
            "lo_bus": 3,
            "xfmr": 1,
            "pt": 9.9997,
            "br_x": 0.004,
            "topoil_init": 0,
            "g_to": 0.0,
            "hotspot_instant_limit": 280,
            "topoil_rated": 75,
            "g_fr": 0.0,
            "source_id": [
                "branch",
                2
            ],
            "b_fr": 0.0,
            "f_bus": 1,
            "gmd_br_hi": 2,
            "baseMVA": 100,
            "br_status": 1,
            "topoil_initialized": 1,
            "hi_bus": 1,
            "config": "gwye-delta",
            "topoil_time_const": 71,
            "t_bus": 3,
            "b_to": 0.0,
            "index": 2,
            "gmd_br_common": -1,
            "qf": -0.1722,
            "angmin": -1.0472,
            "temperature_ambient": 25,
            "angmax": 1.0472,
            "qt": 0.5726,
            "transformer": true,
            "hotspot_avg_limit": 240,
            "hotspot_rated": 150,
            "gmd_br_lo": -1,
            "tap": 1.0,
            "type": "xfmr",
            "pf": -9.989700000000001
        },
        "3": {
            "br_r": 0.0001,
            "gmd_br_series": -1,
            "rate_a": 20.0,
            "hotspot_coeff": 0.63,
            "shift": 0.0,
            "gmd_k": 1.8,
            "lo_bus": 4,
            "xfmr": 1,
            "pt": -9.9287,
            "br_x": 0.004,
            "topoil_init": 0,
            "g_to": 0.0,
            "hotspot_instant_limit": 280,
            "topoil_rated": 75,
            "g_fr": 0.0,
            "source_id": [
                "branch",
                3
            ],
            "b_fr": 0.0,
            "f_bus": 2,
            "gmd_br_hi": 3,
            "baseMVA": 100,
            "br_status": 1,
            "topoil_initialized": 1,
            "hi_bus": 2,
            "config": "gwye-delta",
            "topoil_time_const": 71,
            "t_bus": 4,
            "b_to": 0.0,
            "index": 3,
            "gmd_br_common": -1,
            "qf": -0.8284999999999999,
            "angmin": -1.0472,
            "temperature_ambient": 25,
            "angmax": 1.0472,
            "qt": 1.2289,
            "transformer": true,
            "hotspot_avg_limit": 240,
            "hotspot_rated": 150,
            "gmd_br_lo": -1,
            "tap": 1.0,
            "type": "xfmr",
            "pf": 9.9387
        }
    },
    "gmd_branch": {
        "1": {
            "source_id": [
                "gmd_branch",
                1
            ],
            "br_r": 1.00073,
            "f_bus": 3,
            "name": "dc 1",
            "br_status": 1,
            "parent_index": 1,
            "br_v": 106.12311,
            "len_km": 170.78859,
            "t_bus": 4,
            "index": 1
        },
        "2": {
            "source_id": [
                "gmd_branch",
                2
            ],
            "br_r": 0.1,
            "f_bus": 3,
            "name": "dc 2_hi",
            "br_status": 1,
            "parent_index": 2,
            "br_v": 0.0,
            "len_km": 0.0,
            "t_bus": 1,
            "index": 2
        },
        "3": {
            "source_id": [
                "gmd_branch",
                3
            ],
            "br_r": 0.1,
            "f_bus": 4,
            "name": "dc 3_hi",
            "br_status": 1,
            "parent_index": 3,
            "br_v": 0.0,
            "len_km": 0.0,
            "t_bus": 2,
            "index": 3
        }
    },
    "dcline": {},
    "storage": {},
    "switch": {},
    "baseMVA": 100.0,
    "genfuel": {
        "1": {
            "source_id": [
                "genfuel",
                1
            ],
            "col_1": "unknown",
            "index": 1
        },
        "2": {
            "source_id": [
                "genfuel",
                2
            ],
            "col_1": "unknown",
            "index": 2
        }
    },
    "gentype": {
        "1": {
            "source_id": [
                "gentype",
                1
            ],
            "col_1": "UN",
            "index": 1
        },
        "2": {
            "source_id": [
                "gentype",
                2
            ],
            "col_1": "UN",
            "index": 2
        }
    },
    "per_unit": true,
    "shunt": {},
    "gmd_bus": {
        "4": {
            "source_id": [
                "gmd_bus",
                4
            ],
            "g_gnd": 0.0,
            "name": "dc Bus 2",
            "status": 1,
            "parent_index": 2,
            "index": 4
        },
        "1": {
            "source_id": [
                "gmd_bus",
                1
            ],
            "g_gnd": 5.0,
            "name": "dc Sub A",
            "status": 1,
            "parent_index": 1,
            "index": 1
        },
        "5": {
            "source_id": [
                "gmd_bus",
                5
            ],
            "g_gnd": 0.0,
            "name": "dc Bus 3",
            "status": 1,
            "parent_index": 3,
            "index": 5
        },
        "2": {
            "source_id": [
                "gmd_bus",
                2
            ],
            "g_gnd": 5.0,
            "name": "dc Sub B",
            "status": 1,
            "parent_index": 2,
            "index": 2
        },
        "6": {
            "source_id": [
                "gmd_bus",
                6
            ],
            "g_gnd": 0.0,
            "name": "dc Bus 4",
            "status": 1,
            "parent_index": 4,
            "index": 6
        },
        "3": {
            "source_id": [
                "gmd_bus",
                3
            ],
            "g_gnd": 0.0,
            "name": "dc Bus 1",
            "status": 1,
            "parent_index": 1,
            "index": 3
        }
    },
    "load": {}
}